Cases/test/data_old/branch_specific/scenario_results_case_ACTIVSg2000.csv
line_id,y_cos_f_w1_vm_from,y_cos_f_w2_vm_to,y_cos_f_w3_theta_i,y_cos_f_w4_theta_j,y_cos_f_bias,y_sin_f_w1_vm_from,y_sin_f_w2_vm_to,y_sin_f_w3_theta_i,y_sin_f_w4_theta_j,y_sin_f_bias
1001_1064,0.43082531981458605,0.4304737404522743,-0.17075169399194773,-0.17415112301457084,-0.030477336406152133,0.013080425066038986,0.012982199318153115,-0.0051669104554639515,-0.0052698320105405835,-0.009670571512723422
1001_1071,-0.8393780464855711,-0.5318293729924142,-4.634974283520652,-1.5354865363834003,-0.5270896219601986,-0.008053024428283533,-0.007591753242860002,-0.007189498529510514,-0.0007054748023292852,-0.008211221328696422
1002_1007,0.49233401667617427,0.4927429440643624,-0.006996058058872545,-0.005281319604403811,0.012176448772726278,1.0400847361903554e-05,-0.007065747000473022,0.05074634907869389,0.04613433127535352,0.06133758030854555
1004_1003,-0.0641004406998179,0.6698530411690964,-0.34262891693431796,-0.20766743580788424,0.2529247030732211,-6.768366226051793e-05,0.0007494743967697891,-0.0003833592574059528,-0.0002333490184532699,-0.029844751623826684
1004_3133,-0.08600863353516985,0.9369631701133284,-0.3167501931313855,-0.14274931956782988,-0.008793109648207231,-0.007460602436713145,-0.008477777360570735,0.0059531183495662365,0.0049635710182564016,0.07852386194336601
1005_1061,-0.7256613079987178,-0.6044161093027863,-3.973112520314149,0.524467880350214,1.408877859451996,0.052900221224740286,0.04627093558234176,0.06368419900421393,-0.03756510415040516,-0.0829338255095638
1006_1005,0.4115096934003748,0.40956894783843134,-0.2779485028623861,0.014391873233793817,0.11513458676252974,-4.958332151856514e-10,-4.935231224507796e-10,3.349330032661349e-10,-1.18294179842248e-11,0.03813850017450539
1007_1015,0.9653968153588435,0.07324218311780839,-0.08859693481401942,0.13555038083901938,-0.024638917817411787,0.011089669627798608,0.010877542934662974,-0.012841936764831849,-0.013518753226846527,-0.0459121746135414
1008_1032,-0.005940051222329545,0.4732272070496312,-0.3627026553721935,-0.31142726531438625,0.4202693955593143,0.00044684887743574875,-0.026813889370883647,0.020551342950504887,0.017645698479999784,0.11384320845508615
1008_1069,-0.0508562091153576,0.42865078505220355,-0.38269312846243364,-0.32971685871413026,0.5358915263575387,-0.0009440886764471197,0.009462693525910273,-0.00844853346672498,-0.0073012399410657585,-0.013249819401694502
1009_1008,0.001747374444748373,-0.007266944445468826,-0.5855848941568218,-0.5537720812417224,0.8883053966069665,0.015522967374761623,0.015976865555445165,0.01832729652955359,0.017312115214146974,0.031246113043758607
1010_1002,0.01417453520352352,1.0028683844014346,-0.01836302243675564,-0.015780270501893734,-0.026525965900850546,0.023290592752222478,2.54201391569793e-05,-0.02880823835299543,-0.030453789845615805,-0.02503375627894185
1010_1015,0.27500468622293767,0.2947169542433282,-0.37079238578193074,0.02284336271865367,0.37016602298042,0.0072528528984157695,0.007766498485033292,-0.009769013194741452,0.00048184223115116387,0.00874984040315709
1010_1030,0.3604179253227577,-0.06423224540338285,-0.450847845652509,-0.24591625505777231,0.5496828509474941,-0.07888470255627947,-0.04171124708674635,0.09814551086183308,0.06731163407088339,0.12647407433694582
1011_1010,-0.06649860102730248,0.2852869435206612,-0.2724716435222546,-0.3541473269830836,0.6789417986747042,-1.3558097292325349e-13,6.434115754964234e-13,-6.180843363414506e-13,-7.986696716892929e-13,0.032460003231414285
1012_1087,0.06148498541882158,-0.0035309884645053913,-0.2559694900047912,-0.22066282608885218,0.8922755697932263,-0.04219303864033219,0.1268114216475641,0.17672531191482244,0.15266286574964694,-0.11830685585748532
1013_1031,-0.18290395323162123,-0.49425371217871716,-1.2957335934179681,-1.1484062293335855,0.9271502051147021,0.03582527289667084,-0.009257402888401038,-0.1699933701719996,-0.16412479382097522,-0.12842889768004367
1014_1047,1.6285892083864888,-1.0310484698458522,-0.12289080519449169,-0.7665392859675717,0.1226598790707083,0.008536762201734471,-0.000482463391687768,-0.0018756453263127242,-0.003992238394706191,0.03033440544840934
1014_1083,-0.04624399090806208,0.9483213043478457,-0.22985130268091442,0.018683288891251232,0.03496906471546213,-0.04281215043368841,0.03098822424255115,0.0021705687144676442,0.021410463898103714,-0.03709373905625879
1016_1034,0.09014199464949157,0.8530618210569816,-0.3970388023194674,-0.2637144255444871,-0.1536833010956815,0.01131472574329849,0.09395242027539058,-0.04338031254916666,-0.02904616647241374,-0.16297595259951517
1017_1029,-0.0013157038513147978,0.25763555564208596,-0.2475218162623525,-0.5998498830815899,0.39007325683172267,0.030770412096132682,0.2085350668272284,-0.20030841511036016,-0.48538178917957897,-0.5733974875648398
1018_1017,0.4481520007337937,0.45675112789644584,-0.14563081752711404,-0.14774136986964495,-0.0342741029859035,0.011963742004618139,0.01205515758693298,-0.003865341639031281,-0.003921497799075795,-0.006368897060039909
1019_1040,-0.08071614246242453,-0.17537312725880505,-2.114452443936236,-1.0311369738308767,-0.1546004711300195,0.014620399348062012,0.014099537648023065,-0.010386558531557483,-0.008831645445798316,-0.07390788010083332
1019_1045,0.29856767053307987,0.09637025269932564,-0.3634959508199408,-0.7960613048468606,0.052825076848652674,0.038895304257585125,0.003108740301929605,-0.06449334091798099,-0.14831437681498524,-0.11923986531009928
1019_1071,0.007970627445429578,0.9090927713928496,0.0562224862020726,-0.2881265810270504,-0.009377348951881581,-0.005934878705629199,0.0006262364457530896,0.002651768097276355,0.0001937764743936237,-0.0038714223783859834
1019_1084,-1.215010954989062,1.9041941352489569,-1.2852920307248799,-0.8354751672029066,-0.6247030167545733,-0.021108769018556045,0.12901107888893407,-0.08724154014435914,-0.071997248056192,-0.3343493307440677
1020_3059,-0.6928856831645558,0.25837497575475826,-0.6211029553975057,-0.5876775286887297,1.2118843204544865,-0.027838347701542962,-0.019737182400781914,0.027276635896207095,0.024642718128754414,0.09892762140833267
1020_3130,-0.36308372223202207,-0.4560835201900827,-0.6844146333618029,-0.5536155642247318,1.5869540714319543,0.01805598848129346,0.004289312744027874,-0.08531028274889739,-0.08440393882219516,-0.019404571094039688
1021_1020,0.07599958509918409,0.9698685186986691,-0.09788250381540771,0.1342852324264722,-0.05663977221371308,0.008710877671587826,-0.05587224965160172,-0.011278428638624648,-0.02666270888133367,0.16050576402310077
1022_1003,0.4870821143998477,0.45602952671941377,-0.054399798983689296,-0.05227652713546138,0.02897633456114046,0.0003635580090156779,0.00033965874940731415,-2.2580691940013442e-05,-2.1324901246515352e-05,0.015819552669394412
1022_1028,0.7881505346259432,-0.0950915372808083,-0.22329794422223992,-0.19146668757685156,0.20430465939471354,-0.023217913619682572,0.0030056580290851206,0.0065273763860627014,0.005589667998223658,0.05127258739865288
1023_1022,-0.07747020785435932,1.0729895515290557,-0.5062077201724049,-0.09765757521477064,-0.11726469182799826,0.0010058362377176645,-0.011990571382052069,0.005639308347024762,0.0010567672193167736,0.1715062402064897
1024_1018,0.012274040015309629,0.9389160258923341,-0.2358227602198264,-0.004206997757139827,-0.05687340060448576,0.03703360180036819,-0.015229921737889462,0.0020390165144762076,-0.010905324901494491,-0.009390021531206216
1024_1090,1.4425543920492676,-0.7271051761191069,-0.9327068258766019,0.017606112310036615,-0.0556916277160866,0.0470674774493323,-0.02231957399312723,-0.030091543260348415,0.0002177227033574418,-0.09274386873670853
1025_1005,0.4114143529409269,0.4281103473687419,1.667948806526607,-2.3102268212428836,-0.10993244449569106,-0.04356016010020489,-0.05588582830840724,0.042574421531861834,0.03906802835946745,0.18169958925825191
1025_1020,0.2763382760762562,0.03853029304128602,-0.2361439638857044,-0.3594207553730029,0.5841158945503075,0.028242230730216103,-0.010578523580901732,-0.020593727148532928,-0.040390217670170044,-0.024081397245156254
1026_1025,0.9344619521450759,0.01943669600550474,0.09059168744179835,-0.24908478863555644,-0.007315631819088342,-3.981002146453429e-05,0.0008705135524787837,-0.001098287655565323,-0.0007317417295730884,0.16699831772182663
1027_1045,-0.38058022175023315,-0.13791021304980472,-0.5583247002252331,-0.4057053197592134,1.1668955175492464,-0.012313141068991285,-0.17786520367123954,0.26111484857919187,0.1509992885024783,0.4103045241132565
1028_3109,0.874600800917517,0.042676254238838474,-0.23594016959151978,0.1718431207469167,0.07044329601794064,0.006327716398963389,-0.004835563790183116,0.00013587081903639248,0.005852644169853127,0.008266471020044706
1029_1056,0.10897069400089449,0.05752268060850896,-0.25110087122109864,-0.2279386530030486,0.7413017920092102,-0.04798879736486822,-0.08486108209582652,0.11126688871842684,0.08657255063204108,0.18297685765872296
1030_1038,0.7357583129608498,-0.14752841639429026,-0.34734236816234654,-0.26441927636070583,0.2881267356057209,-0.054757077120094574,-0.0711328557118136,0.04829330758957453,0.04335709009510975,0.05651848010897825
1031_1007,0.2513405869975942,0.2527502130068538,-0.23433082049337536,-0.26473211185653944,0.3656220967326157,0.03669262224268588,0.03624145896898397,-0.03390513541059141,-0.03830339901137211,-0.10694860287949146
1032_1036,0.3803350646726684,0.4862009345957098,-0.25207031350287235,0.057075288034135974,0.08987497843722636,-0.06349443727710428,-0.08105738360999853,0.042048930929141276,0.0005024488908407752,0.1747507400722654
1033_1032,-0.8560864758845466,-0.74475413385478,-3.9734212294391797,0.49581359598985797,1.6308207118192324,-0.11373327991106491,-0.11491234491650028,-0.2405384546312505,0.07619110967662815,0.1094191441524438
1033_1081,0.37137443399132664,0.4273320357511105,-0.004800777393966449,-0.28162863297338875,0.11727102314731774,-0.012081921574157255,-0.01389094043632451,0.0005333923999298693,0.009154061300357194,0.07597432294057119
1033_3050,0.4167012886827694,-3.365561344269328e-10,-0.09663735688365588,0.053517375810750556,0.667454315327433,-0.19439065429078234,1.5981696783686016e-10,-0.15438085808986585,-0.4246066032106424,0.18345340841328
1035_1034,-0.03994104966470957,0.8322291496671794,-0.10699325059990572,-0.2581120674322037,0.1065009162173649,-0.030440734226097044,0.028250744511228373,0.0036767409273135198,-0.008745686688802308,0.057921417352242294
1037_1017,0.3287617833944746,0.0179284289336612,-1.4152195003101151,-0.9894996360815711,-0.47042394576930824,0.029751432784177495,0.008785029232158112,-0.09350818147220545,-0.06669711735638106,-0.13906942485139312
1037_1071,0.5156231206355935,0.4853051258752543,0.018249347925222315,-0.010909173998091354,0.002923903276601081,0.039467974937207204,0.018118462514009656,-0.09973174726298897,-0.13042879275931643,-0.1874868122391878
1038_1032,0.034295452783894786,0.495352367648326,-0.4205354899370324,-0.3276089742317173,0.33786952481887633,0.00040272257603047625,0.005238983013163013,-0.004442697650594336,-0.0034648576171147413,0.07349349086749422
1039_1038,0.4730387144379351,0.03926270861492204,-0.34606043810297393,-0.3650432035366503,0.4172770620688273,-9.38182033498714e-12,-7.442756870064677e-13,6.863647591810642e-12,7.244607890148208e-12,0.09546915702570273
1040_1090,0.42117867029745804,0.43120805393175554,-0.18388625373267317,-0.16317225192306836,0.008966610994225688,-0.01124563152092524,-0.07065085448912967,0.010469829509812805,0.022923016509142205,0.0247804771766664
1041_1067,0.08072123320112212,0.9000066247819267,0.1769503019430601,-0.2323040383536814,0.0040611521353535185,-0.03854541913020544,-0.004453843308385427,0.025027008559695918,0.005090373843724953,0.06725134626827292
1042_1041,0.4945318663022187,0.4879567836541947,-0.021093145988839185,-0.021093145988839185,0.005007334410854103,0.0,0.0,0.0,0.0,0.0
1043_1041,-0.22440757736758993,-0.33766880994297943,0.17558118534624612,-3.9281752668485033,0.43715049996622646,0.00011247342232841972,0.00011617641035728313,-5.372323453532582e-05,1.0201967512772e-05,0.05641707644057291
1044_3019,0.7785624793661553,-1.2110096655792226,-0.7532068675880396,-0.02185333974461673,1.3094612081084553,-0.10501302446988517,0.06043524566893413,0.12582551533194855,0.05367215995531318,0.21390568514710978
1045_1064,0.47441288748633514,0.5024339079401468,0.03286043140375375,-0.08884920412620947,-0.004611492959208929,-0.014997902260776685,-0.03054105060557398,0.09286315270171576,0.0440742577152713,0.11723674955124772
1046_3009,1.002339529968841,-0.03331168261291778,0.06101278211891836,0.05362316653186511,0.0843606632249958,0.12547981192241284,-0.055167774250633884,0.10004062315455753,0.08464577618449988,0.1571520145833788
1047_1013,0.8376373186190961,-0.09539586626074292,-0.17567149071504334,-0.30530001210301844,0.10982982184936518,0.02894525641377975,0.03175410914177711,-0.014198744644260828,-0.014849741835091496,-0.04182370030569278
1047_1017,0.42360069074657847,0.4420768939529781,-0.18922634466882035,-0.15395952551553851,-0.00098391743496129,0.08087297697121072,-0.04268462547680246,-0.008023447720175084,-0.006719048390884162,0.08778365080302458
1047_1085,0.01828392060279571,0.7097477272871884,-0.2943286042697465,-0.2720768151918359,0.0955156660286216,-8.986257219871898e-05,-0.004178045894037375,0.0017326157681534283,0.001601630075156686,0.03980123276203225
1048_1047,1.411469977213724,-0.9996443888813805,-0.6410689714515652,-0.6410689714515652,0.2050877030063254,0.0,0.0,0.0,0.0,0.0
1049_1047,0.5005489883962245,0.5038244927051441,0.004766788516636811,0.004766788516636811,-0.0015249680629225715,0.0,0.0,0.0,0.0,0.0
1050_1047,0.5043735283336462,0.5064895353280519,0.014543133290183696,0.013677852877603841,-0.006396098212561263,0.03186355896182067,0.03195829336637829,-0.003840254811471792,-0.003806557829249607,0.01044142612941866
1051_1047,-0.009044338626504556,1.0079559845535104,0.0019519894587789882,0.001520409799305636,-0.013711063778348409,0.09956198803114444,-0.06177430403569873,-0.04511920274637811,-0.04522197431328183,0.01730259056089742
1052_1047,0.7836964651762209,-0.023235323334107494,-0.15849439562854686,-0.3599176085530147,0.09628582084849024,0.10200912996805847,-0.06305993819810068,-0.005964683624127758,-0.04692398444274176,0.0043648748255631226
1053_1047,0.5306328786798218,0.11914273322042679,-0.4444283285771071,-0.29029225206664605,0.11091212623112967,-0.047822605556656045,-0.010332480725339155,0.040154524940410705,0.026161439210328638,0.04348569207801936
1053_1081,1.4645633587885096,1.435747133730598,4.0532509001516095,-0.9507275400563129,-0.9937765683185145,0.014143424131679072,0.013267307508169688,0.0012008257510531242,-0.008740501783793242,-0.017982112029818115
1054_1056,0.28863918874471517,0.07060915796398942,-0.2567678811309959,-0.3217193192213229,0.47917639859514305,0.03507799935687082,0.008053731306348875,-0.03120474223346708,-0.03923136464367059,-0.08032316564697314
1055_1003,0.42797463303334116,0.4525976022926569,-0.23523695779655668,0.010918565005822667,0.05330264089433023,-0.002444197611261196,-0.0025755404477897873,0.0013394840646825845,0.00019094760643046218,-0.015672566570978024
1055_1089,0.46109568760917596,0.4153652196607445,-0.25857546496657813,0.05577215282374168,0.06356112161737637,-0.03889752166904048,-0.04884795194616701,0.029469457088501166,-0.24707313671382272,0.06914940651133715
1056_1027,0.06493747862669175,0.11130112674358825,-0.18008648333503754,-0.1846378528718206,0.7693787888466672,0.05083551427822541,0.08971924381706443,-0.1438675633276888,-0.14678987562966891,-0.22287136537518473
1056_1061,0.09891955128732421,0.2723134481727278,-0.3369953102487127,-0.21507818159782924,0.48889371326677933,-0.10554155325930745,-0.12441714945691514,0.1387876015596392,0.09819752718309299,0.2669130832416172
1056_1065,0.3408711594039634,0.2682240514650941,-0.26116613214192075,-0.18690188044080433,0.2559589726936994,-0.17894353392482198,-0.1406003063929395,0.13698379443690104,0.09805217313959091,0.33340882366831687
1057_1056,0.14352548571125845,0.2509680761413269,-0.2377617747743641,-0.2377617747743641,0.492822698173932,0.0,0.0,0.0,0.0,0.0
1058_1087,0.0349775077455429,-0.04237664536431612,-0.4628935071262801,-0.46229572732529267,0.8712543366062432,0.0028166179062400197,-0.0028000667437563104,-0.033605916950919024,-0.03356262850791834,0.06455422708335024
1059_1058,0.24987628912222526,0.25539336666782336,-0.2499873648941702,-0.2499873648941702,0.42585601618698976,0.0,0.0,0.0,0.0,0.0
1060_1058,0.49887106139288473,0.49801909534463945,-0.0015714045671926247,-0.0015714045671926247,0.002676903647053752,0.0,0.0,0.0,0.0,0.0
1061_3042,0.32904859798307157,0.006732188688063828,-0.2586689338179794,-0.25974394191538414,0.5553591412748264,0.0026310430902876,0.003998286052150745,-0.002094806998123642,-0.0021050699456823807,-0.003020818283218856
1062_1061,0.3080923787284193,0.3080923787284193,-0.2431568948923182,-0.2431568948923182,0.25203427996956607,0.0,0.0,0.0,0.0,0.0
1063_1061,0.3080923787284193,0.3080923787284193,-0.2431568948923182,-0.2431568948923182,0.25203427996956607,0.0,0.0,0.0,0.0,0.0
1065_1041,0.9622087235053078,-0.03980813558011842,0.021170527674712947,-0.23782049326442262,0.008123129291988329,0.0016962365975108848,-0.05605019908566936,0.026993047033463557,0.008928140828015728,0.07467332222958549
1066_1065,0.25176314143661294,-0.1325020646845983,-1.0296114838820025,-0.6685644321132758,0.5190985554204479,0.030562153627550395,0.07655555186369407,0.13288333668586078,0.0812990379893179,0.06934059153065768
1067_1005,0.11816027712944932,0.6003483851931397,-0.11048411313888268,-0.5697424485552414,0.06904716730312566,0.021290897253067598,0.09688826274215989,-0.018388852478854155,-0.09138064674803319,-0.16891124294907764
1067_1034,-0.026915865931208316,0.9057184247254442,-0.08300613453985474,-0.27986159994301274,0.009174649646410904,0.016935827291448047,-0.0710263816210205,0.002806855572573045,0.021922922787058964,0.044466396626826596
1068_1016,1.022519589576348,-0.8108447968100598,0.03880898756801716,-4.811403943328191,-0.7304264532092741,0.10562111508345123,-0.017084424449454128,0.0025965291993164676,-0.31259815137785757,-0.21638968773766523
1069_1058,0.3326802786163261,0.04595581602721427,-0.33799634517008736,-0.30261616815107417,0.5422512241386104,0.003070973373705533,0.0311352059529002,0.0008086046707596849,-0.002913154394633747,0.004156666962362443
1070_1069,0.26464283471574457,0.263834646890483,-0.23804230111009755,-0.2637054812149079,0.4219015486916522,0.0026168609260740117,-0.006917443293420613,-0.24270436438113074,0.25662629422443,0.11170229395356444
1072_1071,0.7256899074081598,0.03840035607879988,-0.07963626817980192,-0.3447565163826125,0.05612399802601398,0.045270614199888676,0.05749830445342924,-0.01863351662542403,-0.007539294691315825,-0.012573108697565602
1073_1071,0.6798828943779814,0.07881460843591659,-0.07780874317677013,-0.2616855602235756,0.09876647198920785,0.11861983056345066,0.015510971172064313,-0.014019986265423908,-0.04521341429388428,0.01686968764095656
1074_1071,0.627590821847132,0.1221183584167041,-0.2440834259149044,-0.2494860446985363,0.058323036858562216,0.0956305972953293,0.01997328494746818,-0.03685911047076662,-0.03768198598713514,-0.0025831973062143965
1075_1071,1.2193886709834658,-0.81801003537422,0.08327428822864782,-0.7309214067661567,0.33739788379877655,0.030542140778141033,0.11168516502753251,-0.03057006517168545,0.015105403667768521,-0.009508924991699946
1076_1071,0.3929025820116323,0.4868816236952496,-0.1568507820001942,-0.1568507820001942,-0.021545184688218866,0.0,0.0,0.0,0.0,0.0
1077_1071,0.3929025820116323,0.4868816236952496,-0.1568507820001942,-0.1568507820001942,-0.021545184688218866,0.0,0.0,0.0,0.0,0.0
1078_1071,0.5246008699850927,0.4508102006410982,-0.08220943081615448,0.027557387012252327,-0.0005510219371036573,-0.009026602890324349,-0.08810174918657082,-0.08600481351778495,-0.11198833559957243,0.20649848929545647
1079_1071,0.7789596941583921,-0.6404432787670302,-0.9632662565878503,-1.6057305676705942,-0.5555924625335198,-0.09994270331399766,-0.034293124853709805,0.11999266379374474,0.17095127353008782,0.09206152192755654
1080_1071,0.40940013282044063,0.4541580415559688,-0.22197306518852455,-0.12952544205822572,0.001392995471852787,-0.055123485372334434,0.06599144693858296,-0.0029237167324978695,0.013220752685387627,0.186780836875198
1081_1071,0.01002279801556738,0.9463821616022382,-0.00569444961696805,0.23305956754610951,0.1938945135452621,-0.019185132018720828,-0.003854871297530541,0.012644043857104131,0.01622998444732338,0.12312113031047191
1081_3058,0.33339635680422086,0.11079927754825823,-0.21933921451595895,-0.22092198112067754,0.4420730175186044,0.0180271808561834,0.0059910631125157645,-0.011859960699133651,-0.011945542977566118,0.01454008011362324
1082_1038,0.8125676827823338,-0.1458265145206934,-0.2423271590151216,-0.28761385445558074,0.26605046703341995,-0.007773739966216589,-0.008225773184993694,0.005828760370665762,0.005442061199900328,0.05635509069006728
1082_1069,0.04243175053892878,0.37662510724078335,-0.3384076043252837,-0.39416830995705676,0.4997291451204976,-0.026795214559139857,0.03075677374600719,-0.027534972156320236,-0.035867114594976074,0.02485858801365808
1083_1030,0.0873778154884921,-0.2992694364506817,-0.9748277762259384,-0.802868767762416,0.8632262251573741,0.021919752862157582,-0.07543494685259444,-0.2454551199892073,-0.20213644200360986,-0.0016966682125487687
1083_1038,0.8283316704441002,-0.1416044579707849,-0.18335609181739215,-0.2705405505528687,0.24160149902576233,0.018884773351905013,0.020004860370860023,-0.010491462700095966,-0.011871908153879526,-0.09444034127984924
1084_1020,0.3125543745795498,-0.7173282227720835,-0.5903748276598004,-0.58748389919485,1.1878586818848693,-0.009301657318033146,-0.004752267155130904,0.010687267641972625,0.010586273885279043,-0.005021820907319157
1084_3130,0.3146385827507154,-0.8477520506763354,-0.6014501250923694,-0.3770427895867445,1.3257617605615992,0.049379285273265294,-0.01410654255057418,-0.06417023593179874,-0.05887998620804674,-0.04657567721083723
1085_1086,0.970793630126489,1.2408892417423751,-0.45639320411044837,4.0477316674978026,0.16127690483444468,-0.01332372603012159,-0.020465554436719945,0.007625452284914848,-0.12629729769583856,0.03117965821626885
1086_1013,0.567691583294458,0.1417750303987751,-0.27321394284123635,-0.32401615163353703,0.08373335784394453,0.030918859128236616,0.03507029636477519,-0.007793669420790537,-0.010583267888276442,-0.12223496263970095
1087_1046,0.021340299372740568,-0.023732347105902468,-0.4444635045814578,-0.39913780051673386,0.8416529260431771,-0.03098157968174414,-0.03171282312298599,-0.0038742435934893994,-0.003469647229657851,0.1811081984504467
1088_1036,-0.7106777115923535,1.4128276129291786,-0.37645126860772316,-1.1347240975029809,-0.13388701114944035,0.01441421178081767,0.08690435169306711,-0.02313666842889968,-0.055152719098582645,-0.12142061004789806
1088_1068,0.48503680270969807,0.5068642071125247,-0.1009745400223821,0.001558486088037941,-0.0227745686045302,-0.06851997126728528,-0.07276925817606375,0.014384356302292695,-0.0002220228785793289,0.23657838622051647
1089_1054,-0.7257187574017994,-0.6104900830283932,-3.996639761085735,0.6055970656031385,1.186487349559943,-0.0019022787379787479,-0.004032159838004047,-0.12342774766788205,0.0053444204241462415,-0.0028162095637501855
1090_1085,-0.018814273739344523,0.89208874669651,-0.11750667433535059,-0.3413802316029517,-0.03778373762703291,0.008277012310438179,-0.03961921765204918,0.003373077491177669,0.015158656437314972,0.033216454240805895
1091_2048,-0.006473982480108949,-0.006429455255357179,-0.02570307582175896,-0.02699376421461413,1.1897250299923408,0.018009974377521998,0.017907514426295082,0.055205941465838806,0.05990136302968249,0.035510595654146423
2002_2101,0.12660483029619263,0.1348916044326852,0.43784389083399794,0.1823969381784199,1.4984250900816005,-0.0030665010097966415,-0.0030271081210143523,0.006839309960540557,-0.0027116775371360505,0.027172967373354347
2003_2002,0.21760510224756063,0.22614661696319394,0.25624006155012924,0.21162864893809152,1.1378489272450525,0.013123741789314324,0.013525159817110933,0.01545325011376327,0.01287534103302228,-0.04041345965009324
2003_2047,0.2943654187380333,0.30092589263787695,0.33766195724452963,0.015157240636810454,0.8469527053449077,-0.009816849103484215,-0.010034897642126119,-0.011260042216558717,-0.00047765002449099217,0.02607289908346223
2004_2002,0.499517185080617,0.4983689923786633,0.0008753777867563373,0.0008753777867563373,0.004264380069375795,0.0,0.0,0.0,0.0,0.0
2005_2002,0.499517185080617,0.4983689923786633,0.0008753777867563373,0.0008753777867563373,0.004264380069375795,0.0,0.0,0.0,0.0,0.0
2006_2002,0.3420232655163367,0.84874120236591,-0.07899952548981781,-0.07899952548981781,-0.3848441291127722,0.0,0.0,0.0,0.0,0.0
2007_2114,-0.07023216338541838,0.307821990296248,0.06670524559342018,0.4378221402445649,1.3832784604072774,0.008070096914309627,-0.03513238840449519,-0.0075592821666561495,-0.04996946070333115,-0.06212376683528106
2007_2122,0.4361771154724182,-0.3137677643510598,0.2745802740866176,0.2936948389161904,1.5872215555749565,-0.03714145247159677,0.09943014012187096,0.013782045566189718,0.007638124054641859,-0.02620764318765477
2008_2052,0.04107268470822892,-0.0037381085351323503,0.09348237438245299,0.09119135333003307,1.2393815528361103,0.02273637482907892,0.0011878351728362227,0.06175308359663341,0.058477741244569115,0.02504266379906476
2009_2049,0.044622728518772914,-0.05377141754406759,0.11098567264878409,0.157438975818839,1.3880650338559983,-0.002296061721751494,0.0028406838324406608,-0.005672853145733461,-0.008099978563116101,-0.0905223172185612
2009_2082,0.129245857461968,1.008523929890133,0.02755979048370666,-0.01104354622719425,-0.12656765429594485,0.016157685569015603,0.043954115097210804,0.04174985136486528,0.03718999345652594,-0.015436822783084789
2010_2079,-0.024830496597732815,-0.00020892239213712795,1.0269417108962335,-0.9715538791466686,1.3012883404437434,0.0012056829924434326,0.00029597889743399785,-0.07218255925139522,-0.009985589114768482,-0.08752668310587061
2010_2091,-0.003587199653464053,0.43914367123419756,-0.14334286839975027,0.14447761663392017,0.6758644977754389,0.005221830162429282,-0.6396560474120243,0.2090739788209199,-0.21016350796926841,0.722230858963431
2012_2011,-1.0027417074268072,3.740444029905373e-12,0.0054412258149356685,0.007581938788756126,2.399124260760156,-0.031155843785521012,8.934301431435862e-12,0.019069876668338287,0.018559724160688035,0.09964755621737448
2012_2041,-0.9758464205520465,0.000759697738882569,0.13516729319268195,-0.11892274759966914,2.362956770609347,-0.0006469319314508998,1.6617834587863964e-05,0.0029068767610081346,0.00271773924569068,-0.036483178672389885
2012_2052,0.49955587994617195,0.5003994789645577,0.001993310430406736,0.0025189836509998953,0.0019281548807195126,0.005337786244364068,-0.0035541854861535858,-0.060809373343982155,-0.06800819680837379,-0.035380026922034576
2012_2123,0.5000142530866117,-0.5026668249725206,0.0025144818872522845,0.0021245246620299474,1.1976286485753644,1.3995848000015847e-05,3.7968119261352224e-05,0.003810429235997272,0.0037852515207857478,-0.04845322812474639
2013_2011,1.0112812066107328,1.891371238848275e-12,1.5603063285851704e-10,1.5515000395538436e-10,-0.005734891910623263,-4.064780822839911e-14,1.1074075800665413e-21,2.301377616200382e-12,2.301377616203251e-12,0.04370959200666282
2014_2008,0.013304134908904641,0.07386206141386592,0.15736624100688126,0.11739877649813824,1.2370185318175455,0.0027749407699341616,0.043056242825386976,0.08286035189915082,0.05974005458768943,0.019224966130347253
2014_2029,-0.9961531054494686,0.06992496083054306,0.33177034864289395,0.3057210979617888,2.6500532096411185,0.0006162490080899585,0.011071683274581655,0.052231780247527726,0.04781296649428183,0.03391675862696932
2015_2037,0.3641067809817861,0.3767269947754932,0.26358494630429563,-0.17012521842903006,0.4029785547553175,-0.01451879197602618,-0.018317639633360895,0.03258459018044635,0.07714017508090319,0.16169712681311188
2017_2096,-0.04264009385610837,0.8964923523210178,-0.21069761983588892,0.3108353078035834,0.2103593830279693,0.00018365275481561504,-0.0004829636785762464,-0.0010488389819136646,-0.0016607154716181901,-0.08043137314501976
2017_2127,0.02847569079196092,-0.9026004077876806,0.19566500553600705,-0.25238239491317194,2.216073814924803,-0.00025420746869432055,0.0009526416697666867,0.0019203001544448519,0.0023869231812350842,0.033497111062568086
2018_2017,0.04105388598026372,0.006309931909611014,-0.042649604906539906,-0.041718833493385524,1.0824458496642586,-0.008135541946051133,-0.0012445726207332536,0.0083932927924074,0.008209714825589636,0.035384531057893076
2018_2093,0.013786886141546557,-0.01082368292179151,-0.024207946106949704,-0.024558278633556745,1.1564968855450146,0.003799709248262749,-0.0029790953931836243,-0.006713004827503549,-0.006810045400488938,-0.023955789821141327
2019_2017,0.4938595534504321,0.45433141972298,-0.0027248397512385503,-0.0027248397512385503,0.05840500344642341,0.0,0.0,0.0,0.0,0.0
2021_2002,0.14340110104461046,-0.2971783946189517,0.20948850152736676,0.7057830301736076,2.2766213806604414,-0.007205651119967408,-0.009854300089011971,-0.01010901534190694,-0.009985880024062277,0.07410322902480285
2022_2001,0.2584572105987631,0.3018856873494373,0.3468387965193436,0.006359532750392027,0.8648820792748069,-0.03516777965409282,-0.04107680355602981,-0.047193516055410875,-0.0008488667687746934,0.06444525414400176
2022_2021,0.1824618790449396,0.16227972306722468,0.24776769306482083,0.22799129551742667,1.2386696714512944,0.0193132750952731,0.0171770287053227,0.026225782837101537,0.024132485276945226,-0.0269430072829142
2022_2040,0.258793076012595,0.26418402045866995,0.3575231714143025,-0.0059790476091384215,0.909290589690303,0.0022995648310223,0.0022432340644328703,0.003044576388667535,0.007651608357713375,0.0179175013165596
2023_2021,0.14536275428465384,0.16571661931345247,0.22980263600470358,0.23281988662496667,1.2574738090489124,0.00015171915281485482,0.00017296304829464245,0.00023985140774767839,0.00024300059620512864,0.028415420880077074
2024_2021,0.8325025011408573,-0.08536070491218173,0.3377230906215467,-0.119764373190973,0.4949891534323001,-0.029050819714618568,0.010843837632285363,-0.004370942887196963,0.015227967337649737,0.07272574716864325
2025_2055,-0.6642283821518494,0.018497305882890017,0.4633924091617199,-0.22046339776635288,2.0238783398110662,0.0011367118974220229,-0.0005147607591363837,-0.004225084717242981,-0.0026070683031923798,-0.00811981137358432
2027_2001,0.6405627112468544,0.6459209902647985,0.7972131864641714,-1.0024654497579155,-0.535695736548212,-0.012313158615131697,-0.012530122255464338,-0.015500241631907276,0.00416907731020102,0.009844131228455127
2027_2090,0.23394499189342405,-0.002158536524429211,0.30187848419668006,0.29470363228214735,1.5043762152708964,0.013452775722331254,-0.007996192601176105,0.017458905708033812,0.017081085559184438,0.03951785693414553
2028_2045,0.025694500681959637,-0.040192821249987756,0.11598644168938058,0.0828353953678356,1.298392377321783,0.0031140936730681273,-0.005015702442638116,0.014056410550873701,0.009965832715692742,-0.010126581719823877
2028_2109,0.025311565171421496,0.0360500661300251,0.11457853427422296,0.12412248590994049,1.261968163636653,-0.009369463832603037,-0.013344484565876759,-0.04241300076089722,-0.04594584075184062,-0.05974504941362223
2029_1091,0.06523944094837143,0.8979669441570082,0.296049538018606,-0.2042324465467006,0.0982116551048664,0.026078436037148434,0.05169293264256033,0.11337448902872613,0.06828187831012805,-0.020807931854110576
2030_2106,0.37377935372000787,0.3280889804167462,-0.11472015415248982,0.2998763991309278,0.5421369280506003,0.06388492322769752,-0.021407221943537096,-0.217295605402691,-0.0743111355048322,-0.33110487021059964
2031_2048,-0.49878322422317983,0.505336331783963,-0.02455968368562539,-0.02450581601649393,1.1625017869448695,-0.014154330076547102,0.017153473012738053,-0.026519551188212805,-0.02767421503062343,0.0046262462534603505
2031_2087,0.006880169130538932,-0.0016743122388089772,-0.036864014748745115,-0.03330570398719398,1.1500622138859562,-0.00783406889160157,0.0018968715315876026,0.04204264198982292,0.03798758258148887,0.009074578069474086
2032_2114,0.7422812163440395,0.2084395849108029,-0.2622436286181016,0.29715229382535124,0.08915238296383388,-0.016778544508980836,-0.014176283704433159,-0.015985896573230567,-0.02020172462146627,-0.026976525603111708
2033_5288,-0.08183947218484533,-0.08187114193717007,-0.09731205909373841,1.0032119856637745,2.2901684370193403,-0.020396721461345968,-0.02101590749803562,-0.025355707267377053,-0.00018270921101740112,6.04342130783829e-05
2034_2043,-0.0013113361449221816,1.003502801296875,0.0052379696518266294,0.00252466447432817,0.005939750411234179,0.007368969788917875,0.0001343053682541697,0.008113802249104272,0.008002086704409283,0.015105921591084696
2035_2066,-0.008128958764732797,0.0040374338100060084,-0.04401006513922069,-0.05705294672238891,1.1390366732612187,-0.028396998089533883,0.002231093319430959,-0.012344280316783286,-0.03741907770677993,-0.04808553885344902
2035_2091,0.002064588943535395,0.007599255333635419,-0.059254660355908546,-0.06385937391805915,1.1115211768657098,-0.041615922326234164,-0.0003782970021671177,0.02375392791816177,-0.017540081967598695,0.11514522654193088
2036_2055,0.003795478489072357,0.011510854274584424,0.08172237035139386,0.07233183407910734,1.2261546327792403,0.00016919468263164403,0.0006307350295774721,0.00449723359426114,0.003944189108273475,-0.0036607075529842365
2036_2082,-0.4193749017726695,-0.41799286349844733,0.1595798230642525,0.1582238833761524,2.3257359236074118,-0.005600756090998459,-0.005798207764517716,-0.007418570057853206,-0.007575035118842608,0.007322577420808561
2037_2065,0.07652449323603311,0.07697146760807388,0.18761894012476332,0.17062955062403964,1.396483505441613,0.00748545126531297,0.03845658249114583,0.05607202527199093,0.05101920951526366,0.09640071250091828
2038_2003,0.20748760515345643,0.21017800291156258,0.24575907748280448,0.24736056418101499,1.2032192960753303,-0.0033726119877058123,-0.0034163431191339996,-0.003994696503403257,-0.004020727905291295,-0.009249938077454457
2039_2086,0.07511591361254644,0.0720141010302405,0.17886975308660244,0.17549924681698753,1.321082171951116,0.002577537075023853,0.002471101081022529,0.006137759603899342,0.0060221036203171666,-0.013428586675654455
2039_5455,0.13000621067416473,-0.08911398315106014,0.31086842356978267,0.08625224818277591,1.4895557265404364,0.009170134835963305,0.001646249872955377,0.02187983418234931,0.013977896604601692,0.04049885504610823
2040_2114,0.6640169375612306,0.600430995545191,-0.9974664945169289,0.8620105524603496,-0.4695731968294852,0.01990130669234204,0.01784589752170121,7.254447047244303e-05,0.02552061114223498,-0.04996555286368844
2041_2058,9.410086308434852e-06,2.190397723235559e-06,0.0017323318358590054,0.0018094416472776015,1.1943617666702213,-0.0002716550717175442,3.8006964819945274e-06,-0.012574147783884953,0.018822540375684232,-0.004582448174931598
2042_2041,1.690166005563834e-05,3.289443169655434e-05,0.005727394289990075,3.114008387721358e-05,1.18529953627467,1.4190946442374592e-05,0.0007172087342964986,0.12500793546433425,-0.12498794811891327,0.041251891000269054
2043_2016,0.4547224472585141,0.44972734322347635,0.18736103876127108,-0.10652712601141012,0.2039853047812069,0.006403031285229097,0.005977715000794179,0.012014419002100353,0.016081756415870393,0.02436687262545685
2044_2102,0.19296725274968263,0.2864577662200326,0.0013759743957734716,0.3459501707657864,0.9796846479904373,-0.04178073838277435,-0.06202156357496827,0.00026047947182857717,-0.07490408755066137,0.020692714961936764
2045_2020,-0.023543914060967105,0.057176470695611645,0.08090651695358772,0.07989193547239178,1.2085256285286492,0.002304067702405329,-0.001134571413043706,0.004412290864548849,0.004382579395508787,-0.0037643421356253386
2046_2034,0.24223001178413084,0.2229857819667033,0.2373622934852421,0.24696505180133993,1.1772101170411735,0.006685131938352873,0.0061890622891574085,0.0066262582123792,0.006854575810799803,0.007155325830618511
2049_2061,8.695673885361632e-05,0.020044611264051236,0.11289643337943951,0.10768097727380511,1.3070731137423721,0.06330206048024317,0.0025481824749483354,0.01472562124407311,0.013660541233948394,-0.12384484878656687
2050_5268,-0.5025432452547126,-0.499942940951651,0.7908224612228656,0.8038594615723509,3.982853776644558,-0.007830103801901009,-0.007867919677188012,0.00433527745861967,0.004417963697639873,0.04327814471775486
2051_2112,0.0538248694985167,-0.056348983198780435,0.16797717841824114,0.11816761782456238,1.3779006589070515,-0.010501826004974605,0.061505333582070304,-0.032716775286200706,0.0020352068385192414,-0.1661646194693796
2053_5362,0.07244637018917383,0.04391575639877489,0.16501082669283082,0.14895404379359675,1.2999075133338784,-0.007848766158390169,0.010231096896940272,0.0385008526071809,0.04712629225995253,0.03537189071648063
2054_5236,0.014856578171268786,-0.6628979645065987,-0.2352266379723656,0.4364896919199188,2.0336722645290917,0.002913182844541437,-0.02011250263967542,0.010344458558811892,0.03211579484200365,0.09031617894049246
2055_2020,0.001963870084867203,0.665793081692122,0.35650825317817536,-0.30853955452645554,0.4055994164445539,0.0003365369814340713,0.000106382932217256,0.002114399182524066,0.00235678044365587,0.01893526613256779
2055_2054,0.5309858902604109,0.46579444784079893,0.03202232490976592,-0.03254598926071606,0.003557285647056485,0.07068045075636056,0.06200270114070039,0.004266522916428789,-0.004328277122249806,-0.1633532429512898
2056_2054,0.4930067857103836,0.45578375382761044,0.00340892010547883,0.00340892010547883,0.06265053300271473,0.0,0.0,0.0,0.0,0.0
2057_2054,0.021602353160652996,0.01766230419126781,0.13068961755472222,0.0018481150826976794,1.1575590066025816,-0.0024256332445410783,-0.001984347764066481,-0.01468260294899213,-0.00025605538138682646,0.058873542712436416
2058_2026,-0.0127382560039228,-0.9766650949236159,-0.14106821981266338,0.11672342053927698,2.356550686426733,0.0009606191349943172,0.07194329622843136,0.025579830327048303,0.006127058509877093,-0.00025534074900659953
2059_2058,0.8889505296992022,-3.5679627145303837e-07,-0.22221737733954783,0.22234341209372804,0.15019743105541017,5.089107941761684e-14,5.0750366256376874e-14,4.091855701030256e-11,4.0920780364369884e-11,0.06112862408839565
2060_2064,0.5155470028452972,0.4803445152828805,0.01101283643763129,-0.008231948042672466,0.007708804042329209,0.012207825312841482,0.01137414946678713,0.000242779150307652,-0.0002128855375935542,-0.0547954531509061
2061_2010,0.01582621413293636,-0.0008254129721961257,0.0873994398102345,0.0004282722001819547,1.2361047186887608,0.020520263547205292,-0.0010771724756278162,0.11429374943321852,-0.031208639345566787,0.012943537197953082
2062_2061,0.03240245916739287,0.03232987664549933,0.0007799084487144364,0.1735811925020822,1.2146954402976957,-8.780234671998189e-12,-8.760529018054323e-12,5.1849945778321375e-15,-4.703574924602896e-11,0.04197796500375987
2063_2046,0.21909296163008052,-0.27604676876630196,0.2397735678800396,0.7233806013705203,2.3289908163612676,0.00839501464169782,0.012472647011658722,0.009153701770602896,0.004651701296479962,0.0022484507765266303
2064_2022,-0.08622239617329719,-0.09182366544314455,0.993667845236988,-0.12002152871290933,2.2685100003830403,0.0013931656494670912,0.0014804181424618755,-0.015592282686553736,0.0019368207208924314,-0.04479315589684954
2065_2044,-0.7732564735377292,0.5578414160988422,0.7725004698705442,-0.2270153521182907,2.0550620567910616,0.03288488274041354,-0.06931072325965891,-0.09595298096203919,-0.035023127415874045,-0.10322542573152654
2067_2025,0.01566032699547644,0.016799649200381527,0.06778086765134594,0.06549412441949125,1.1761305083483686,-0.0019918396857999867,-0.002138817818830745,-0.008736044516501564,-0.008454504456119295,-0.006552019490435647
2068_2067,0.006278055636087201,0.00024471471504592356,0.05862617888653855,0.06075225575546656,1.1871956355839737,-0.0016017565436803223,-0.03129414456190844,-0.015080884643600093,-0.015571707038658518,0.052425493972328985
2068_2088,0.0073692536724962315,0.9993494269609342,-0.0004853817503821592,-0.0005068207861548685,-0.00821505141004164,-6.1294886179222e-06,5.708355169236515e-07,-5.773890993886079e-05,-5.7716204416583305e-05,-0.005782682079915022
2069_2016,0.3113716312372246,-0.0326820044076534,0.3235383282165069,0.322583886952714,1.5907948204320954,0.002444914130269314,0.008537202160519236,0.002970699934800742,0.002957676227191805,0.009249815244656144
2069_2072,0.33604081873582564,0.3398812538452257,0.3318795343414487,-0.049921932379360046,0.7082460082611706,-0.010332598805939336,-0.017020247277159447,-0.0035374842974148163,0.07692000208709349,0.08023342167895674
2069_5074,0.4470980073874217,0.17058681517613467,0.45967678385417926,-0.09059997373576661,0.8567159600191341,-0.011899146731968908,-0.019864888627111332,-0.01371523058259312,-0.029545161112817436,-0.00787177923160243
2070_5237,0.00034382147081368775,0.005945556731554363,0.05409961269605621,0.054258104179581414,1.1812967394412726,-0.01553061725694502,7.498050945043181e-05,0.0006183573929673305,0.0005857095479081184,0.048785500736706094
2071_2070,-0.49398622783354695,0.5049173514707997,0.05392795411637047,0.05427471173889631,1.1417957427865648,-0.031245713986890855,0.03119377645030244,8.146616759113073e-06,9.980428683463438e-06,0.06376025963888733
2072_2102,0.004561144988832644,0.25987063843506875,0.33463446865504143,0.31244539812225103,1.5676160314203513,-1.4692163049986884e-06,0.010393006845702688,0.013383527616389085,0.012495276212501794,-0.03945289033997876
2073_2066,0.0025426202454341754,0.0027286937096576242,-0.036335097515605014,-0.036158955087343694,1.1404532186648484,-0.0001018301515564651,-0.00010928226285642631,0.0014551950860444698,0.0014481407057461994,0.047600825030154593
2073_3079,0.05431949708892789,-1.0550949500401732,-0.23396780750244078,-0.5776741077171286,1.9648805447506894,0.0006236845436097434,-0.0015500625276927897,-0.0066417833023398095,-0.008173595362576381,-0.025553187290882757
...
